Version 4
SHEET 1 1104 1156
WIRE -80 -176 -656 -176
WIRE 144 -176 -80 -176
WIRE 352 -176 144 -176
WIRE -352 -128 -512 -128
WIRE 1008 -128 -352 -128
WIRE -80 -80 -80 -176
WIRE -512 0 -512 -128
WIRE 144 16 144 -176
WIRE -80 32 -80 0
WIRE 112 32 -80 32
WIRE 384 48 176 48
WIRE -352 64 -352 -128
WIRE -256 64 -352 64
WIRE 112 64 -256 64
WIRE -656 128 -656 -176
WIRE -512 128 -512 80
WIRE -512 128 -656 128
WIRE 144 128 144 80
WIRE -256 160 -304 160
WIRE -192 160 -256 160
WIRE -80 160 -80 32
WIRE -80 160 -128 160
WIRE 352 176 352 -176
WIRE 352 176 144 176
WIRE 432 176 368 176
WIRE 496 176 432 176
WIRE 800 176 592 176
WIRE 1008 176 1008 -128
WIRE 1008 176 960 176
WIRE -80 192 -80 160
WIRE -304 224 -304 160
WIRE 384 224 384 48
WIRE 432 224 384 224
WIRE 496 224 432 224
WIRE 896 224 608 224
WIRE 496 256 464 256
WIRE 144 304 144 176
WIRE -512 320 -512 128
WIRE 112 320 64 320
WIRE 368 336 368 176
WIRE 368 336 176 336
WIRE -80 352 -80 272
WIRE 112 352 -80 352
WIRE -352 400 -352 64
WIRE -80 400 -80 352
WIRE 144 416 144 368
WIRE 464 416 464 256
WIRE 960 416 960 272
WIRE -656 448 -656 128
WIRE 704 464 704 416
WIRE -352 512 -352 464
WIRE -80 512 -80 480
WIRE -80 512 -352 512
WIRE -352 544 -352 512
WIRE 704 560 704 528
WIRE 704 672 704 640
WIRE -656 688 -656 528
WIRE -224 688 -656 688
WIRE 64 688 64 320
WIRE 64 688 -224 688
WIRE -800 752 -896 752
WIRE -704 752 -800 752
WIRE -896 800 -896 752
WIRE -800 800 -800 752
WIRE -656 800 -656 688
WIRE -704 816 -704 752
WIRE -896 912 -896 880
WIRE -848 912 -896 912
WIRE -704 912 -704 864
WIRE -704 912 -768 912
WIRE -656 912 -656 880
WIRE -512 912 -512 400
WIRE -512 912 -656 912
WIRE -656 960 -656 912
FLAG -352 544 0
FLAG -256 64 THR
IOPIN -256 64 In
FLAG 144 128 0
FLAG 144 416 0
FLAG 800 176 Q
IOPIN 800 176 Out
FLAG 960 416 0
FLAG -656 960 0
FLAG 704 416 Q
IOPIN 704 416 In
FLAG 704 672 0
FLAG -800 800 0
FLAG 432 176 set
FLAG 432 224 reset
FLAG 464 416 0
FLAG -224 688 TRG
IOPIN -224 688 In
FLAG -256 160 CTRL
IOPIN -256 160 In
FLAG -304 224 0
DATAFLAG 720 224 ""
DATAFLAG 1008 64 ""
DATAFLAG 704 176 ""
DATAFLAG 272 336 ""
DATAFLAG -80 -144 ""
DATAFLAG 256 48 ""
DATAFLAG -384 688 ""
DATAFLAG 0 352 ""
DATAFLAG 16 32 ""
DATAFLAG 144 -144 ""
DATAFLAG 352 -144 ""
SYMBOL res -96 -96 R0
SYMATTR InstName R1
SYMATTR Value 5K
SYMBOL res -96 176 R0
SYMATTR InstName R2
SYMATTR Value 5K
SYMBOL res -96 384 R0
SYMATTR InstName R3
SYMATTR Value 5K
SYMBOL Digital\\srflop 544 128 R0
SYMATTR InstName A1
SYMATTR Value2 Vhigh=5V Vlow=0V
SYMBOL Comparators\\LT1720 144 -16 R0
WINDOW 0 13 22 Left 2
SYMATTR InstName U1
SYMBOL Comparators\\LT1720 144 272 R0
WINDOW 0 -13 17 Left 2
SYMATTR InstName U2
SYMBOL voltage -512 304 R0
WINDOW 0 27 19 Left 2
WINDOW 123 0 0 Left 0
WINDOW 39 24 124 Left 2
SYMATTR InstName V1
SYMATTR Value 5
SYMBOL npn 896 176 R0
SYMATTR InstName Q1
SYMBOL res -528 -16 R0
SYMATTR InstName R4
SYMATTR Value 1000K
SYMBOL cap -368 400 R0
SYMATTR InstName C1
SYMATTR Value 0.1µ
SYMATTR SpiceLine V=10 Irms=2.4 Rser=0.0421193 Lser=0
SYMBOL res -672 432 R0
SYMATTR InstName R5
SYMATTR Value 1K
SYMBOL LED 688 464 R0
SYMATTR InstName D1
SYMATTR Value NSSW008CT-P1
SYMBOL sw -656 784 R0
SYMATTR InstName S1
SYMBOL voltage -896 896 R180
WINDOW 123 0 0 Left 0
WINDOW 39 0 0 Left 0
SYMATTR InstName V2
SYMATTR Value PULSE(0 5 0.1 0 0 0.01)
SYMBOL res -752 896 R90
WINDOW 0 0 56 VBottom 2
WINDOW 3 32 56 VTop 2
SYMATTR InstName R6
SYMATTR Value 2R
SYMBOL res 688 544 R0
SYMATTR InstName R7
SYMATTR Value 100R
SYMBOL cap -128 144 R90
WINDOW 0 0 32 VBottom 2
WINDOW 3 32 32 VTop 2
SYMATTR InstName C2
SYMATTR Value 10n
TEXT -304 864 Left 2 !.tran 1
TEXT -304 896 Left 2 !.model SW SW(RON=.1 ROFF=1GIG VT=4)
